<?xml version="1.0" encoding="UTF-8" standalone="yes"?>
<template encoding-version="1.3">
    <description></description>
    <groupId>c4bf65b7-0176-1000-37a7-4629ea2e1649</groupId>
    <name>Santander Data Flow</name>
    <snippet>
        <processGroups>
            <id>5734e994-1665-339b-0000-000000000000</id>
            <parentGroupId>1cf5e0e6-d399-3015-0000-000000000000</parentGroupId>
            <position>
                <x>0.0</x>
                <y>0.0</y>
            </position>
            <comments></comments>
            <contents>
                <connections>
                    <id>a18f7fbc-9fdd-3b65-0000-000000000000</id>
                    <parentGroupId>5734e994-1665-339b-0000-000000000000</parentGroupId>
                    <backPressureDataSizeThreshold>1 GB</backPressureDataSizeThreshold>
                    <backPressureObjectThreshold>10000</backPressureObjectThreshold>
                    <destination>
                        <groupId>5734e994-1665-339b-0000-000000000000</groupId>
                        <id>f3348b41-c675-3f0f-0000-000000000000</id>
                        <type>PROCESSOR</type>
                    </destination>
                    <flowFileExpiration>0 sec</flowFileExpiration>
                    <labelIndex>1</labelIndex>
                    <loadBalanceCompression>DO_NOT_COMPRESS</loadBalanceCompression>
                    <loadBalancePartitionAttribute></loadBalancePartitionAttribute>
                    <loadBalanceStatus>LOAD_BALANCE_NOT_CONFIGURED</loadBalanceStatus>
                    <loadBalanceStrategy>DO_NOT_LOAD_BALANCE</loadBalanceStrategy>
                    <name></name>
                    <source>
                        <groupId>1a86e7ac-f428-3ea6-0000-000000000000</groupId>
                        <id>a1561c40-736b-3e45-0000-000000000000</id>
                        <type>OUTPUT_PORT</type>
                    </source>
                    <zIndex>0</zIndex>
                </connections>
                <connections>
                    <id>ab51a020-992e-39fe-0000-000000000000</id>
                    <parentGroupId>5734e994-1665-339b-0000-000000000000</parentGroupId>
                    <backPressureDataSizeThreshold>1 GB</backPressureDataSizeThreshold>
                    <backPressureObjectThreshold>10000</backPressureObjectThreshold>
                    <destination>
                        <groupId>5734e994-1665-339b-0000-000000000000</groupId>
                        <id>0feb5968-b2f9-3961-0000-000000000000</id>
                        <type>PROCESSOR</type>
                    </destination>
                    <flowFileExpiration>0 sec</flowFileExpiration>
                    <labelIndex>1</labelIndex>
                    <loadBalanceCompression>DO_NOT_COMPRESS</loadBalanceCompression>
                    <loadBalancePartitionAttribute></loadBalancePartitionAttribute>
                    <loadBalanceStatus>LOAD_BALANCE_NOT_CONFIGURED</loadBalanceStatus>
                    <loadBalanceStrategy>DO_NOT_LOAD_BALANCE</loadBalanceStrategy>
                    <name></name>
                    <selectedRelationships>success</selectedRelationships>
                    <source>
                        <groupId>5734e994-1665-339b-0000-000000000000</groupId>
                        <id>6f4d7e18-6261-3039-0000-000000000000</id>
                        <type>PROCESSOR</type>
                    </source>
                    <zIndex>0</zIndex>
                </connections>
                <connections>
                    <id>c0e8d36f-e0bb-3d39-0000-000000000000</id>
                    <parentGroupId>5734e994-1665-339b-0000-000000000000</parentGroupId>
                    <backPressureDataSizeThreshold>1 GB</backPressureDataSizeThreshold>
                    <backPressureObjectThreshold>10000</backPressureObjectThreshold>
                    <destination>
                        <groupId>5734e994-1665-339b-0000-000000000000</groupId>
                        <id>e096fe1d-19df-36cd-0000-000000000000</id>
                        <type>PROCESSOR</type>
                    </destination>
                    <flowFileExpiration>0 sec</flowFileExpiration>
                    <labelIndex>1</labelIndex>
                    <loadBalanceCompression>DO_NOT_COMPRESS</loadBalanceCompression>
                    <loadBalancePartitionAttribute></loadBalancePartitionAttribute>
                    <loadBalanceStatus>LOAD_BALANCE_NOT_CONFIGURED</loadBalanceStatus>
                    <loadBalanceStrategy>DO_NOT_LOAD_BALANCE</loadBalanceStrategy>
                    <name></name>
                    <selectedRelationships>failure</selectedRelationships>
                    <source>
                        <groupId>5734e994-1665-339b-0000-000000000000</groupId>
                        <id>f3348b41-c675-3f0f-0000-000000000000</id>
                        <type>PROCESSOR</type>
                    </source>
                    <zIndex>0</zIndex>
                </connections>
                <controllerServices>
                    <id>24dde4ae-cf48-3616-0000-000000000000</id>
                    <parentGroupId>5734e994-1665-339b-0000-000000000000</parentGroupId>
                    <bundle>
                        <artifact>nifi-record-serialization-services-nar</artifact>
                        <group>org.apache.nifi</group>
                        <version>1.12.1</version>
                    </bundle>
                    <comments></comments>
                    <descriptors>
                        <entry>
                            <key>Schema Write Strategy</key>
                            <value>
<name>Schema Write Strategy</name>
                            </value>
                        </entry>
                        <entry>
                            <key>schema-cache</key>
                            <value>
<identifiesControllerService>org.apache.nifi.serialization.RecordSchemaCacheService</identifiesControllerService>
<name>schema-cache</name>
                            </value>
                        </entry>
                        <entry>
                            <key>schema-protocol-version</key>
                            <value>
<name>schema-protocol-version</name>
                            </value>
                        </entry>
                        <entry>
                            <key>schema-access-strategy</key>
                            <value>
<name>schema-access-strategy</name>
                            </value>
                        </entry>
                        <entry>
                            <key>schema-registry</key>
                            <value>
<identifiesControllerService>org.apache.nifi.schemaregistry.services.SchemaRegistry</identifiesControllerService>
<name>schema-registry</name>
                            </value>
                        </entry>
                        <entry>
                            <key>schema-name</key>
                            <value>
<name>schema-name</name>
                            </value>
                        </entry>
                        <entry>
                            <key>schema-version</key>
                            <value>
<name>schema-version</name>
                            </value>
                        </entry>
                        <entry>
                            <key>schema-branch</key>
                            <value>
<name>schema-branch</name>
                            </value>
                        </entry>
                        <entry>
                            <key>schema-text</key>
                            <value>
<name>schema-text</name>
                            </value>
                        </entry>
                        <entry>
                            <key>compression-format</key>
                            <value>
<name>compression-format</name>
                            </value>
                        </entry>
                        <entry>
                            <key>cache-size</key>
                            <value>
<name>cache-size</name>
                            </value>
                        </entry>
                        <entry>
                            <key>encoder-pool-size</key>
                            <value>
<name>encoder-pool-size</name>
                            </value>
                        </entry>
                    </descriptors>
                    <name>AvroRecordSetWriter</name>
                    <persistsState>false</persistsState>
                    <properties>
                        <entry>
                            <key>Schema Write Strategy</key>
                            <value>avro-embedded</value>
                        </entry>
                        <entry>
                            <key>schema-cache</key>
                        </entry>
                        <entry>
                            <key>schema-protocol-version</key>
                            <value>1</value>
                        </entry>
                        <entry>
                            <key>schema-access-strategy</key>
                            <value>schema-text-property</value>
                        </entry>
                        <entry>
                            <key>schema-registry</key>
                        </entry>
                        <entry>
                            <key>schema-name</key>
                            <value>${schema.name}</value>
                        </entry>
                        <entry>
                            <key>schema-version</key>
                        </entry>
                        <entry>
                            <key>schema-branch</key>
                        </entry>
                        <entry>
                            <key>schema-text</key>
                            <value>${avro.schema}</value>
                        </entry>
                        <entry>
                            <key>compression-format</key>
                            <value>NONE</value>
                        </entry>
                        <entry>
                            <key>cache-size</key>
                            <value>1000</value>
                        </entry>
                        <entry>
                            <key>encoder-pool-size</key>
                            <value>32</value>
                        </entry>
                    </properties>
                    <state>ENABLED</state>
                    <type>org.apache.nifi.avro.AvroRecordSetWriter</type>
                </controllerServices>
                <controllerServices>
                    <id>bfff9363-25db-3df9-0000-000000000000</id>
                    <parentGroupId>5734e994-1665-339b-0000-000000000000</parentGroupId>
                    <bundle>
                        <artifact>nifi-record-serialization-services-nar</artifact>
                        <group>org.apache.nifi</group>
                        <version>1.12.1</version>
                    </bundle>
                    <comments></comments>
                    <descriptors>
                        <entry>
                            <key>schema-access-strategy</key>
                            <value>
<name>schema-access-strategy</name>
                            </value>
                        </entry>
                        <entry>
                            <key>schema-registry</key>
                            <value>
<identifiesControllerService>org.apache.nifi.schemaregistry.services.SchemaRegistry</identifiesControllerService>
<name>schema-registry</name>
                            </value>
                        </entry>
                        <entry>
                            <key>schema-name</key>
                            <value>
<name>schema-name</name>
                            </value>
                        </entry>
                        <entry>
                            <key>schema-version</key>
                            <value>
<name>schema-version</name>
                            </value>
                        </entry>
                        <entry>
                            <key>schema-branch</key>
                            <value>
<name>schema-branch</name>
                            </value>
                        </entry>
                        <entry>
                            <key>schema-text</key>
                            <value>
<name>schema-text</name>
                            </value>
                        </entry>
                        <entry>
                            <key>schema-inference-cache</key>
                            <value>
<identifiesControllerService>org.apache.nifi.serialization.RecordSchemaCacheService</identifiesControllerService>
<name>schema-inference-cache</name>
                            </value>
                        </entry>
                        <entry>
                            <key>Date Format</key>
                            <value>
<name>Date Format</name>
                            </value>
                        </entry>
                        <entry>
                            <key>Time Format</key>
                            <value>
<name>Time Format</name>
                            </value>
                        </entry>
                        <entry>
                            <key>Timestamp Format</key>
                            <value>
<name>Timestamp Format</name>
                            </value>
                        </entry>
                    </descriptors>
                    <name>JsonTreeReader</name>
                    <persistsState>false</persistsState>
                    <properties>
                        <entry>
                            <key>schema-access-strategy</key>
                            <value>schema-text-property</value>
                        </entry>
                        <entry>
                            <key>schema-registry</key>
                        </entry>
                        <entry>
                            <key>schema-name</key>
                        </entry>
                        <entry>
                            <key>schema-version</key>
                        </entry>
                        <entry>
                            <key>schema-branch</key>
                        </entry>
                        <entry>
                            <key>schema-text</key>
                        </entry>
                        <entry>
                            <key>schema-inference-cache</key>
                        </entry>
                        <entry>
                            <key>Date Format</key>
                        </entry>
                        <entry>
                            <key>Time Format</key>
                        </entry>
                        <entry>
                            <key>Timestamp Format</key>
                        </entry>
                    </properties>
                    <state>ENABLED</state>
                    <type>org.apache.nifi.json.JsonTreeReader</type>
                </controllerServices>
                <controllerServices>
                    <id>d34ef6f2-d77d-3ce7-0000-000000000000</id>
                    <parentGroupId>5734e994-1665-339b-0000-000000000000</parentGroupId>
                    <bundle>
                        <artifact>nifi-record-serialization-services-nar</artifact>
                        <group>org.apache.nifi</group>
                        <version>1.12.1</version>
                    </bundle>
                    <comments></comments>
                    <descriptors>
                        <entry>
                            <key>schema-access-strategy</key>
                            <value>
<name>schema-access-strategy</name>
                            </value>
                        </entry>
                        <entry>
                            <key>schema-registry</key>
                            <value>
<identifiesControllerService>org.apache.nifi.schemaregistry.services.SchemaRegistry</identifiesControllerService>
<name>schema-registry</name>
                            </value>
                        </entry>
                        <entry>
                            <key>schema-name</key>
                            <value>
<name>schema-name</name>
                            </value>
                        </entry>
                        <entry>
                            <key>schema-version</key>
                            <value>
<name>schema-version</name>
                            </value>
                        </entry>
                        <entry>
                            <key>schema-branch</key>
                            <value>
<name>schema-branch</name>
                            </value>
                        </entry>
                        <entry>
                            <key>schema-text</key>
                            <value>
<name>schema-text</name>
                            </value>
                        </entry>
                        <entry>
                            <key>cache-size</key>
                            <value>
<name>cache-size</name>
                            </value>
                        </entry>
                    </descriptors>
                    <name>AvroReader</name>
                    <persistsState>false</persistsState>
                    <properties>
                        <entry>
                            <key>schema-access-strategy</key>
                            <value>embedded-avro-schema</value>
                        </entry>
                        <entry>
                            <key>schema-registry</key>
                        </entry>
                        <entry>
                            <key>schema-name</key>
                            <value>${schema.name}</value>
                        </entry>
                        <entry>
                            <key>schema-version</key>
                        </entry>
                        <entry>
                            <key>schema-branch</key>
                        </entry>
                        <entry>
                            <key>schema-text</key>
                            <value>${avro.schema}</value>
                        </entry>
                        <entry>
                            <key>cache-size</key>
                            <value>1000</value>
                        </entry>
                    </properties>
                    <state>ENABLED</state>
                    <type>org.apache.nifi.avro.AvroReader</type>
                </controllerServices>
                <processGroups>
                    <id>1a86e7ac-f428-3ea6-0000-000000000000</id>
                    <parentGroupId>5734e994-1665-339b-0000-000000000000</parentGroupId>
                    <position>
                        <x>456.0</x>
                        <y>-192.0</y>
                    </position>
                    <comments></comments>
                    <contents>
                        <connections>
                            <id>67ce6beb-f94f-34e4-0000-000000000000</id>
                            <parentGroupId>1a86e7ac-f428-3ea6-0000-000000000000</parentGroupId>
                            <backPressureDataSizeThreshold>1 GB</backPressureDataSizeThreshold>
                            <backPressureObjectThreshold>10000</backPressureObjectThreshold>
                            <destination>
<groupId>1a86e7ac-f428-3ea6-0000-000000000000</groupId>
<id>e24d0ad7-0121-3b4e-0000-000000000000</id>
<type>PROCESSOR</type>
                            </destination>
                            <flowFileExpiration>0 sec</flowFileExpiration>
                            <labelIndex>1</labelIndex>
                            <loadBalanceCompression>DO_NOT_COMPRESS</loadBalanceCompression>
                            <loadBalancePartitionAttribute></loadBalancePartitionAttribute>
                            <loadBalanceStatus>LOAD_BALANCE_NOT_CONFIGURED</loadBalanceStatus>
                            <loadBalanceStrategy>DO_NOT_LOAD_BALANCE</loadBalanceStrategy>
                            <name></name>
                            <selectedRelationships>split</selectedRelationships>
                            <source>
<groupId>1a86e7ac-f428-3ea6-0000-000000000000</groupId>
<id>8af36053-2f0f-3274-0000-000000000000</id>
<type>PROCESSOR</type>
                            </source>
                            <zIndex>0</zIndex>
                        </connections>
                        <connections>
                            <id>765f9a5d-c139-3496-0000-000000000000</id>
                            <parentGroupId>1a86e7ac-f428-3ea6-0000-000000000000</parentGroupId>
                            <backPressureDataSizeThreshold>1 GB</backPressureDataSizeThreshold>
                            <backPressureObjectThreshold>10000</backPressureObjectThreshold>
                            <destination>
<groupId>1a86e7ac-f428-3ea6-0000-000000000000</groupId>
<id>8af36053-2f0f-3274-0000-000000000000</id>
<type>PROCESSOR</type>
                            </destination>
                            <flowFileExpiration>0 sec</flowFileExpiration>
                            <labelIndex>1</labelIndex>
                            <loadBalanceCompression>DO_NOT_COMPRESS</loadBalanceCompression>
                            <loadBalancePartitionAttribute></loadBalancePartitionAttribute>
                            <loadBalanceStatus>LOAD_BALANCE_NOT_CONFIGURED</loadBalanceStatus>
                            <loadBalanceStrategy>DO_NOT_LOAD_BALANCE</loadBalanceStrategy>
                            <name></name>
                            <selectedRelationships>success</selectedRelationships>
                            <source>
<groupId>1a86e7ac-f428-3ea6-0000-000000000000</groupId>
<id>8bf167d1-650f-317c-0000-000000000000</id>
<type>PROCESSOR</type>
                            </source>
                            <zIndex>0</zIndex>
                        </connections>
                        <connections>
                            <id>cc0d449a-5913-37d1-0000-000000000000</id>
                            <parentGroupId>1a86e7ac-f428-3ea6-0000-000000000000</parentGroupId>
                            <backPressureDataSizeThreshold>1 GB</backPressureDataSizeThreshold>
                            <backPressureObjectThreshold>10000</backPressureObjectThreshold>
                            <destination>
<groupId>1a86e7ac-f428-3ea6-0000-000000000000</groupId>
<id>a1561c40-736b-3e45-0000-000000000000</id>
<type>OUTPUT_PORT</type>
                            </destination>
                            <flowFileExpiration>0 sec</flowFileExpiration>
                            <labelIndex>1</labelIndex>
                            <loadBalanceCompression>DO_NOT_COMPRESS</loadBalanceCompression>
                            <loadBalancePartitionAttribute></loadBalancePartitionAttribute>
                            <loadBalanceStatus>LOAD_BALANCE_NOT_CONFIGURED</loadBalanceStatus>
                            <loadBalanceStrategy>DO_NOT_LOAD_BALANCE</loadBalanceStrategy>
                            <name></name>
                            <selectedRelationships>success</selectedRelationships>
                            <source>
<groupId>1a86e7ac-f428-3ea6-0000-000000000000</groupId>
<id>5c3105fb-6489-3244-0000-000000000000</id>
<type>PROCESSOR</type>
                            </source>
                            <zIndex>0</zIndex>
                        </connections>
                        <connections>
                            <id>cfec98e7-8e55-3f1d-0000-000000000000</id>
                            <parentGroupId>1a86e7ac-f428-3ea6-0000-000000000000</parentGroupId>
                            <backPressureDataSizeThreshold>1 GB</backPressureDataSizeThreshold>
                            <backPressureObjectThreshold>10000</backPressureObjectThreshold>
                            <destination>
<groupId>1a86e7ac-f428-3ea6-0000-000000000000</groupId>
<id>5c3105fb-6489-3244-0000-000000000000</id>
<type>PROCESSOR</type>
                            </destination>
                            <flowFileExpiration>0 sec</flowFileExpiration>
                            <labelIndex>1</labelIndex>
                            <loadBalanceCompression>DO_NOT_COMPRESS</loadBalanceCompression>
                            <loadBalancePartitionAttribute></loadBalancePartitionAttribute>
                            <loadBalanceStatus>LOAD_BALANCE_NOT_CONFIGURED</loadBalanceStatus>
                            <loadBalanceStrategy>DO_NOT_LOAD_BALANCE</loadBalanceStrategy>
                            <name></name>
                            <selectedRelationships>success</selectedRelationships>
                            <source>
<groupId>1a86e7ac-f428-3ea6-0000-000000000000</groupId>
<id>e24d0ad7-0121-3b4e-0000-000000000000</id>
<type>PROCESSOR</type>
                            </source>
                            <zIndex>0</zIndex>
                        </connections>
                        <controllerServices>
                            <id>53e57301-1fb7-333a-0000-000000000000</id>
                            <parentGroupId>1a86e7ac-f428-3ea6-0000-000000000000</parentGroupId>
                            <bundle>
<artifact>nifi-record-serialization-services-nar</artifact>
<group>org.apache.nifi</group>
<version>1.12.1</version>
                            </bundle>
                            <comments></comments>
                            <descriptors>
<entry>
    <key>Schema Write Strategy</key>
    <value>
        <name>Schema Write Strategy</name>
    </value>
</entry>
<entry>
    <key>schema-cache</key>
    <value>
        <identifiesControllerService>org.apache.nifi.serialization.RecordSchemaCacheService</identifiesControllerService>
        <name>schema-cache</name>
    </value>
</entry>
<entry>
    <key>schema-protocol-version</key>
    <value>
        <name>schema-protocol-version</name>
    </value>
</entry>
<entry>
    <key>schema-access-strategy</key>
    <value>
        <name>schema-access-strategy</name>
    </value>
</entry>
<entry>
    <key>schema-registry</key>
    <value>
        <identifiesControllerService>org.apache.nifi.schemaregistry.services.SchemaRegistry</identifiesControllerService>
        <name>schema-registry</name>
    </value>
</entry>
<entry>
    <key>schema-name</key>
    <value>
        <name>schema-name</name>
    </value>
</entry>
<entry>
    <key>schema-version</key>
    <value>
        <name>schema-version</name>
    </value>
</entry>
<entry>
    <key>schema-branch</key>
    <value>
        <name>schema-branch</name>
    </value>
</entry>
<entry>
    <key>schema-text</key>
    <value>
        <name>schema-text</name>
    </value>
</entry>
<entry>
    <key>Date Format</key>
    <value>
        <name>Date Format</name>
    </value>
</entry>
<entry>
    <key>Time Format</key>
    <value>
        <name>Time Format</name>
    </value>
</entry>
<entry>
    <key>Timestamp Format</key>
    <value>
        <name>Timestamp Format</name>
    </value>
</entry>
<entry>
    <key>Pretty Print JSON</key>
    <value>
        <name>Pretty Print JSON</name>
    </value>
</entry>
<entry>
    <key>suppress-nulls</key>
    <value>
        <name>suppress-nulls</name>
    </value>
</entry>
<entry>
    <key>output-grouping</key>
    <value>
        <name>output-grouping</name>
    </value>
</entry>
<entry>
    <key>compression-format</key>
    <value>
        <name>compression-format</name>
    </value>
</entry>
<entry>
    <key>compression-level</key>
    <value>
        <name>compression-level</name>
    </value>
</entry>
                            </descriptors>
                            <name>JsonRecordSetWriter</name>
                            <persistsState>false</persistsState>
                            <properties>
<entry>
    <key>Schema Write Strategy</key>
    <value>full-schema-attribute</value>
</entry>
<entry>
    <key>schema-cache</key>
</entry>
<entry>
    <key>schema-protocol-version</key>
    <value>1</value>
</entry>
<entry>
    <key>schema-access-strategy</key>
    <value>schema-text-property</value>
</entry>
<entry>
    <key>schema-registry</key>
</entry>
<entry>
    <key>schema-name</key>
    <value>${schema.name}</value>
</entry>
<entry>
    <key>schema-version</key>
</entry>
<entry>
    <key>schema-branch</key>
</entry>
<entry>
    <key>schema-text</key>
    <value>{
    "namespace": "nifi",
    "name": "enriched_sensor_event",
    "type": "record",
    "fields": [
        {"name": "load", "type":"int" },
        { "name": "occupation", "type":"int" },
        { "name": "intensity", "type":"int" },
        { "name": "eventTime", "type":"string" },
        { "name": "sensor", "type":"string" },
        { 
            "name": "location", 
            "type": {
                "type" : "record",
                "name" : "location_record",
                "fields" : [
                    { "name": "lon", "type":"string" },
                    { "name": "lat", "type":"string" }
                ]
            }
        }
    ]
}</value>
</entry>
<entry>
    <key>Date Format</key>
</entry>
<entry>
    <key>Time Format</key>
</entry>
<entry>
    <key>Timestamp Format</key>
</entry>
<entry>
    <key>Pretty Print JSON</key>
    <value>false</value>
</entry>
<entry>
    <key>suppress-nulls</key>
    <value>never-suppress</value>
</entry>
<entry>
    <key>output-grouping</key>
    <value>output-oneline</value>
</entry>
<entry>
    <key>compression-format</key>
    <value>none</value>
</entry>
<entry>
    <key>compression-level</key>
    <value>1</value>
</entry>
                            </properties>