<?xml version="1.0" encoding="UTF-8" standalone="yes"?>
<template encoding-version="1.3">
    <description></description>
    <groupId>d5392687-0176-1000-29c3-019a484092da</groupId>
    <name>Santander Data Flow</name>
    <snippet>
        <processGroups>
            <id>7f9d6e25-f36b-34c2-0000-000000000000</id>
            <parentGroupId>41d29af4-5cef-368f-0000-000000000000</parentGroupId>
            <position>
                <x>0.0</x>
                <y>0.0</y>
            </position>
            <comments></comments>
            <contents>
                <connections>
                    <id>6645472e-53bf-351c-0000-000000000000</id>
                    <parentGroupId>7f9d6e25-f36b-34c2-0000-000000000000</parentGroupId>
                    <backPressureDataSizeThreshold>1 GB</backPressureDataSizeThreshold>
                    <backPressureObjectThreshold>10000</backPressureObjectThreshold>
                    <destination>
                        <groupId>ffd01e31-d009-36b9-0000-000000000000</groupId>
                        <id>a7acd394-5f57-3397-0000-000000000000</id>
                        <type>INPUT_PORT</type>
                    </destination>
                    <flowFileExpiration>0 sec</flowFileExpiration>
                    <labelIndex>1</labelIndex>
                    <loadBalanceCompression>DO_NOT_COMPRESS</loadBalanceCompression>
                    <loadBalancePartitionAttribute></loadBalancePartitionAttribute>
                    <loadBalanceStatus>LOAD_BALANCE_NOT_CONFIGURED</loadBalanceStatus>
                    <loadBalanceStrategy>DO_NOT_LOAD_BALANCE</loadBalanceStrategy>
                    <name></name>
                    <selectedRelationships>success</selectedRelationships>
                    <source>
                        <groupId>7f9d6e25-f36b-34c2-0000-000000000000</groupId>
                        <id>25d4e671-6ec8-3e34-0000-000000000000</id>
                        <type>PROCESSOR</type>
                    </source>
                    <zIndex>0</zIndex>
                </connections>
                <connections>
                    <id>b4d962c5-7f28-33c6-0000-000000000000</id>
                    <parentGroupId>7f9d6e25-f36b-34c2-0000-000000000000</parentGroupId>
                    <backPressureDataSizeThreshold>1 GB</backPressureDataSizeThreshold>
                    <backPressureObjectThreshold>10000</backPressureObjectThreshold>
                    <destination>
                        <groupId>7f9d6e25-f36b-34c2-0000-000000000000</groupId>
                        <id>88c19896-6546-31ec-0000-000000000000</id>
                        <type>PROCESSOR</type>
                    </destination>
                    <flowFileExpiration>0 sec</flowFileExpiration>
                    <labelIndex>1</labelIndex>
                    <loadBalanceCompression>DO_NOT_COMPRESS</loadBalanceCompression>
                    <loadBalancePartitionAttribute></loadBalancePartitionAttribute>
                    <loadBalanceStatus>LOAD_BALANCE_NOT_CONFIGURED</loadBalanceStatus>
                    <loadBalanceStrategy>DO_NOT_LOAD_BALANCE</loadBalanceStrategy>
                    <name></name>
                    <source>
                        <groupId>95b5f256-ad73-35a6-0000-000000000000</groupId>
                        <id>9b55b542-f20a-376b-0000-000000000000</id>
                        <type>OUTPUT_PORT</type>
                    </source>
                    <zIndex>0</zIndex>
                </connections>
                <controllerServices>
                    <id>1de183ee-449d-3f05-0000-000000000000</id>
                    <parentGroupId>7f9d6e25-f36b-34c2-0000-000000000000</parentGroupId>
                    <bundle>
                        <artifact>nifi-record-serialization-services-nar</artifact>
                        <group>org.apache.nifi</group>
                        <version>1.12.1</version>
                    </bundle>
                    <comments></comments>
                    <descriptors>
                        <entry>
                            <key>schema-access-strategy</key>
                            <value>
<name>schema-access-strategy</name>
                            </value>
                        </entry>
                        <entry>
                            <key>schema-registry</key>
                            <value>
<identifiesControllerService>org.apache.nifi.schemaregistry.services.SchemaRegistry</identifiesControllerService>
<name>schema-registry</name>
                            </value>
                        </entry>
                        <entry>
                            <key>schema-name</key>
                            <value>
<name>schema-name</name>
                            </value>
                        </entry>
                        <entry>
                            <key>schema-version</key>
                            <value>
<name>schema-version</name>
                            </value>
                        </entry>
                        <entry>
                            <key>schema-branch</key>
                            <value>
<name>schema-branch</name>
                            </value>
                        </entry>
                        <entry>
                            <key>schema-text</key>
                            <value>
<name>schema-text</name>
                            </value>
                        </entry>
                        <entry>
                            <key>cache-size</key>
                            <value>
<name>cache-size</name>
                            </value>
                        </entry>
                    </descriptors>
                    <name>from_AvroReader</name>
                    <persistsState>false</persistsState>
                    <properties>
                        <entry>
                            <key>schema-access-strategy</key>
                        </entry>
                        <entry>
                            <key>schema-registry</key>
                        </entry>
                        <entry>
                            <key>schema-name</key>
                        </entry>
                        <entry>
                            <key>schema-version</key>
                        </entry>
                        <entry>
                            <key>schema-branch</key>
                        </entry>
                        <entry>
                            <key>schema-text</key>
                        </entry>
                        <entry>
                            <key>cache-size</key>
                        </entry>
                    </properties>
                    <state>ENABLED</state>
                    <type>org.apache.nifi.avro.AvroReader</type>
                </controllerServices>
                <controllerServices>
                    <id>a2918bb5-6e61-347e-0000-000000000000</id>
                    <parentGroupId>7f9d6e25-f36b-34c2-0000-000000000000</parentGroupId>
                    <bundle>
                        <artifact>nifi-record-serialization-services-nar</artifact>
                        <group>org.apache.nifi</group>
                        <version>1.12.1</version>
                    </bundle>
                    <comments></comments>
                    <descriptors>
                        <entry>
                            <key>Schema Write Strategy</key>
                            <value>
<name>Schema Write Strategy</name>
                            </value>
                        </entry>
                        <entry>
                            <key>schema-cache</key>
                            <value>
<identifiesControllerService>org.apache.nifi.serialization.RecordSchemaCacheService</identifiesControllerService>
<name>schema-cache</name>
                            </value>
                        </entry>
                        <entry>
                            <key>schema-protocol-version</key>
                            <value>
<name>schema-protocol-version</name>
                            </value>
                        </entry>
                        <entry>
                            <key>schema-access-strategy</key>
                            <value>
<name>schema-access-strategy</name>
                            </value>
                        </entry>
                        <entry>
                            <key>schema-registry</key>
                            <value>
<identifiesControllerService>org.apache.nifi.schemaregistry.services.SchemaRegistry</identifiesControllerService>
<name>schema-registry</name>
                            </value>
                        </entry>
                        <entry>
                            <key>schema-name</key>
                            <value>
<name>schema-name</name>
                            </value>
                        </entry>
                        <entry>
                            <key>schema-version</key>
                            <value>
<name>schema-version</name>
                            </value>
                        </entry>
                        <entry>
                            <key>schema-branch</key>
                            <value>
<name>schema-branch</name>
                            </value>
                        </entry>
                        <entry>
                            <key>schema-text</key>
                            <value>
<name>schema-text</name>
                            </value>
                        </entry>
                        <entry>
                            <key>compression-format</key>
                            <value>
<name>compression-format</name>
                            </value>
                        </entry>
                        <entry>
                            <key>cache-size</key>
                            <value>
<name>cache-size</name>
                            </value>
                        </entry>
                        <entry>
                            <key>encoder-pool-size</key>
                            <value>
<name>encoder-pool-size</name>
                            </value>
                        </entry>
                    </descriptors>
                    <name>to_kafka_AvroRecordSetWriter</name>
                    <persistsState>false</persistsState>
                    <properties>
                        <entry>
                            <key>Schema Write Strategy</key>
                        </entry>
                        <entry>
                            <key>schema-cache</key>
                        </entry>
                        <entry>
                            <key>schema-protocol-version</key>
                        </entry>
                        <entry>
                            <key>schema-access-strategy</key>
                        </entry>
                        <entry>
                            <key>schema-registry</key>
                        </entry>
                        <entry>
                            <key>schema-name</key>
                        </entry>
                        <entry>
                            <key>schema-version</key>
                        </entry>
                        <entry>
                            <key>schema-branch</key>
                        </entry>
                        <entry>
                            <key>schema-text</key>
                        </entry>
                        <entry>
                            <key>compression-format</key>
                        </entry>
                        <entry>
                            <key>cache-size</key>
                        </entry>
                        <entry>
                            <key>encoder-pool-size</key>
                        </entry>
                    </properties>
                    <state>ENABLED</state>
                    <type>org.apache.nifi.avro.AvroRecordSetWriter</type>
                </controllerServices>
                <controllerServices>
                    <id>c4016ecd-e7a7-39a3-0000-000000000000</id>
                    <parentGroupId>7f9d6e25-f36b-34c2-0000-000000000000</parentGroupId>
                    <bundle>
                        <artifact>nifi-record-serialization-services-nar</artifact>
                        <group>org.apache.nifi</group>
                        <version>1.12.1</version>
                    </bundle>
                    <descriptors>
                        <entry>
                            <key>Schema Write Strategy</key>
                            <value>
<name>Schema Write Strategy</name>
                            </value>
                        </entry>
                        <entry>
                            <key>schema-cache</key>
                            <value>
<identifiesControllerService>org.apache.nifi.serialization.RecordSchemaCacheService</identifiesControllerService>
<name>schema-cache</name>
                            </value>
                        </entry>
                        <entry>
                            <key>schema-protocol-version</key>
                            <value>
<name>schema-protocol-version</name>
                            </value>
                        </entry>
                        <entry>
                            <key>schema-access-strategy</key>
                            <value>
<name>schema-access-strategy</name>
                            </value>
                        </entry>
                        <entry>
                            <key>schema-registry</key>
                            <value>
<identifiesControllerService>org.apache.nifi.schemaregistry.services.SchemaRegistry</identifiesControllerService>
<name>schema-registry</name>
                            </value>
                        </entry>
                        <entry>
                            <key>schema-name</key>
                            <value>
<name>schema-name</name>
                            </value>
                        </entry>
                        <entry>
                            <key>schema-version</key>
                            <value>
<name>schema-version</name>
                            </value>
                        </entry>
                        <entry>
                            <key>schema-branch</key>
                            <value>
<name>schema-branch</name>
                            </value>
                        </entry>
                        <entry>
                            <key>schema-text</key>
                            <value>
<name>schema-text</name>
                            </value>
                        </entry>
                        <entry>
                            <key>compression-format</key>
                            <value>
<name>compression-format</name>
                            </value>
                        </entry>
                        <entry>
                            <key>cache-size</key>
                            <value>
<name>cache-size</name>
                            </value>
                        </entry>
                        <entry>
                            <key>encoder-pool-size</key>
                            <value>
<name>encoder-pool-size</name>
                            </value>
                        </entry>
                    </descriptors>
                    <name>from_kafka_AvroRecordSetWriter</name>
                    <persistsState>false</persistsState>
                    <properties>
                        <entry>
                            <key>Schema Write Strategy</key>
                        </entry>
                        <entry>
                            <key>schema-cache</key>
                        </entry>
                        <entry>
                            <key>schema-protocol-version</key>
                        </entry>
                        <entry>
                            <key>schema-access-strategy</key>
                        </entry>
                        <entry>
                            <key>schema-registry</key>
                        </entry>
                        <entry>
                            <key>schema-name</key>
                        </entry>
                        <entry>
                            <key>schema-version</key>
                        </entry>
                        <entry>
                            <key>schema-branch</key>
                        </entry>
                        <entry>
                            <key>schema-text</key>
                        </entry>
                        <entry>
                            <key>compression-format</key>
                        </entry>
                        <entry>
                            <key>cache-size</key>
                        </entry>
                        <entry>
                            <key>encoder-pool-size</key>
                        </entry>
                    </properties>
                    <state>ENABLED</state>
                    <type>org.apache.nifi.avro.AvroRecordSetWriter</type>
                </controllerServices>
                <controllerServices>
                    <id>f115872b-baf9-323f-0000-000000000000</id>
                    <parentGroupId>7f9d6e25-f36b-34c2-0000-000000000000</parentGroupId>
                    <bundle>
                        <artifact>nifi-record-serialization-services-nar</artifact>
                        <group>org.apache.nifi</group>
                        <version>1.12.1</version>
                    </bundle>
                    <comments></comments>
                    <descriptors>
                        <entry>
                            <key>schema-access-strategy</key>
                            <value>
<name>schema-access-strategy</name>
                            </value>
                        </entry>
                        <entry>
                            <key>schema-registry</key>
                            <value>
<identifiesControllerService>org.apache.nifi.schemaregistry.services.SchemaRegistry</identifiesControllerService>
<name>schema-registry</name>
                            </value>
                        </entry>
                        <entry>
                            <key>schema-name</key>
                            <value>
<name>schema-name</name>
                            </value>
                        </entry>
                        <entry>
                            <key>schema-version</key>
                            <value>
<name>schema-version</name>
                            </value>
                        </entry>
                        <entry>
                            <key>schema-branch</key>
                            <value>
<name>schema-branch</name>
                            </value>
                        </entry>
                        <entry>
                            <key>schema-text</key>
                            <value>
<name>schema-text</name>
                            </value>
                        </entry>
                        <entry>
                            <key>schema-inference-cache</key>
                            <value>
<identifiesControllerService>org.apache.nifi.serialization.RecordSchemaCacheService</identifiesControllerService>
<name>schema-inference-cache</name>
                            </value>
                        </entry>
                        <entry>
                            <key>Date Format</key>
                            <value>
<name>Date Format</name>
                            </value>
                        </entry>
                        <entry>
                            <key>Time Format</key>
                            <value>
<name>Time Format</name>
                            </value>
                        </entry>
                        <entry>
                            <key>Timestamp Format</key>
                            <value>
<name>Timestamp Format</name>
                            </value>
                        </entry>
                    </descriptors>
                    <name>to_kafka_JsonTreeReader</name>
                    <persistsState>false</persistsState>
                    <properties>
                        <entry>
                            <key>schema-access-strategy</key>
                            <value>schema-text-property</value>
                        </entry>
                        <entry>
                            <key>schema-registry</key>
                        </entry>
                        <entry>
                            <key>schema-name</key>
                        </entry>
                        <entry>
                            <key>schema-version</key>
                        </entry>
                        <entry>
                            <key>schema-branch</key>
                        </entry>
                        <entry>
                            <key>schema-text</key>
                            <value>{
    "namespace": "nifi",
    "name": "tweet_summary",
    "type": "record",
    "fields": [
        {"name": "id", "type": "long"},
        {"name": "id_str", "type": "string"},
        {"name": "created_at", "type": "string"},
        {"name": "timestamp_ms", "type": "string"},
        {"name": "lang", "type": "string"},
        {"name": "text", "type": "string"},

        {"name": "user", "type": {
            "type": "record",
            "name": "User",
            "fields": [
                {"name": "id", "type": "long"},
                {"name": "id_str", "type": "string"},
                {"name": "name", "type": "string"},
                {"name": "screen_name", "type": "string"},
                {"name": "location", "type": ["null", "string"]},
                {"name": "url", "type": ["null", "string"]},
                {"name": "description", "type": ["null", "string"]},
                {"name": "followers_count", "type": "long"},
                {"name": "friends_count", "type": "long"}
            ]
        }},

        {"name": "entities", "type": {
            "type": "record",
            "name": "Entities",
            "fields": [
                {"name": "hashtags", "type": {
                    "type": "array", "items": {
                        "type": "record",
                        "name": "Hashtag",
                        "fields": [
                            {"name": "text", "type": "string"}
                        ]
                    }
                }},
                {"name": "user_mentions", "type": {
                    "type": "array", "items": {
                        "type": "record",
                        "name": "UserMention",
                        "fields": [
                            {"name": "id", "type": "long"},
                            {"name": "id_str", "type": "string"},
                            {"name": "screen_name", "type": "string"},
                            {"name": "name", "type": "string"}
                        ]
                    }
                }}
            ]
        }}
    ]
}</value>
                        </entry>
                        <entry>
                            <key>schema-inference-cache</key>
                        </entry>
                        <entry>
                            <key>Date Format</key>
                        </entry>
                        <entry>
                            <key>Time Format</key>
                        </entry>
                        <entry>
                            <key>Timestamp Format</key>
                        </entry>
                    </properties>
                    <state>ENABLED</state>
                    <type>org.apache.nifi.json.JsonTreeReader</type>
                </controllerServices>
                <processGroups>
                    <id>95b5f256-ad73-35a6-0000-000000000000</id>
                    <parentGroupId>7f9d6e25-f36b-34c2-0000-000000000000</parentGroupId>
                    <position>
                        <x>336.0</x>
                        <y>40.0</y>
                    </position>
                    <comments></comments>
                    <contents>
                        <connections>
                            <id>8467464f-bf29-333d-0000-000000000000</id>
                            <parentGroupId>95b5f256-ad73-35a6-0000-000000000000</parentGroupId>
                            <backPressureDataSizeThreshold>1 GB</backPressureDataSizeThreshold>
                            <backPressureObjectThreshold>10000</backPressureObjectThreshold>
                            <destination>
<groupId>95b5f256-ad73-35a6-0000-000000000000</groupId>
<id>9b55b542-f20a-376b-0000-000000000000</id>
<type>OUTPUT_PORT</type>
                            </destination>
                            <flowFileExpiration>0 sec</flowFileExpiration>
                            <labelIndex>1</labelIndex>
                            <loadBalanceCompression>DO_NOT_COMPRESS</loadBalanceCompression>
                            <loadBalancePartitionAttribute></loadBalancePartitionAttribute>
                            <loadBalanceStatus>LOAD_BALANCE_NOT_CONFIGURED</loadBalanceStatus>
                            <loadBalanceStrategy>DO_NOT_LOAD_BALANCE</loadBalanceStrategy>
                            <name></name>
                            <selectedRelationships>success</selectedRelationships>
                            <source>
<groupId>95b5f256-ad73-35a6-0000-000000000000</groupId>
<id>16b348a2-6370-3bf3-0000-000000000000</id>
<type>PROCESSOR</type>
                            </source>
                            <zIndex>0</zIndex>
                        </connections>
                        <outputPorts>
                            <id>9b55b542-f20a-376b-0000-000000000000</id>
                            <parentGroupId>95b5f256-ad73-35a6-0000-000000000000</parentGroupId>
                            <position>
<x>1000.0</x>
<y>104.0</y>
                            </position>
                            <concurrentlySchedulableTaskCount>1</concurrentlySchedulableTaskCount>
                            <name>success</name>
                            <state>RUNNING</state>
                            <type>OUTPUT_PORT</type>
                        </outputPorts>
                        <processors>
                            <id>16b348a2-6370-3bf3-0000-000000000000</id>
                            <parentGroupId>95b5f256-ad73-35a6-0000-000000000000</parentGroupId>
                            <position>
<x>360.0</x>
<y>64.0</y>
                            </position>
                            <bundle>
<artifact>nifi-social-media-nar</artifact>
<group>org.apache.nifi</group>
<version>1.12.1</version>
                            </bundle>
                            <config>
<bulletinLevel>WARN</bulletinLevel>
<comments></comments>
<concurrentlySchedulableTaskCount>1</concurrentlySchedulableTaskCount>
<descriptors>
    <entry>
        <key>Twitter Endpoint</key>
        <value>
            <name>Twitter Endpoint</name>
        </value>
    </entry>
    <entry>
        <key>max-client-error-retries</key>
        <value>
            <name>max-client-error-retries</name>
        </value>
    </entry>
    <entry>
        <key>Consumer Key</key>
        <value>
            <name>Consumer Key</name>
        </value>
    </entry>
    <entry>
        <key>Consumer Secret</key>
        <value>
            <name>Consumer Secret</name>
        </value>
    </entry>
    <entry>
        <key>Access Token</key>
        <value>
            <name>Access Token</name>
        </value>
    </entry>
    <entry>
        <key>Access Token Secret</key>
        <value>
            <name>Access Token Secret</name>
        </value>
    </entry>
    <entry>
        <key>Languages</key>
        <value>
            <name>Languages</name>
        </value>
    </entry>
    <entry>
        <key>Terms to Filter On</key>
        <value>
            <name>Terms to Filter On</name>
        </value>
    </entry>
    <entry>
        <key>IDs to Follow</key>
        <value>
            <name>IDs to Follow</name>
        </value>
    </entry>
    <entry>
        <key>Locations to Filter On</key>
        <value>
            <name>Locations to Filter On</name>
        </value>
    </entry>
</descriptors>
<executionNode>ALL</executionNode>
<lossTolerant>false</lossTolerant>
<penaltyDuration>30 sec</penaltyDuration>
<properties>
    <entry>
        <key>Twitter Endpoint</key>
        <value>Sample Endpoint</value>
    </entry>
    <entry>
        <key>max-client-error-retries</key>
        <value>5</value>
    </entry>
    <entry>
        <key>Consumer Key</key>
    </entry>
    <entry>
        <key>Consumer Secret</key>
    </entry>
    <entry>
        <key>Access Token</key>
    </entry>
    <entry>
        <key>Access Token Secret</key>
    </entry>
    <entry>
        <key>Languages</key>
    </entry>
    <entry>
        <key>Terms to Filter On</key>
    </entry>
    <entry>
        <key>IDs to Follow</key>
        <value>2758526168</value>
    </entry>
    <entry>
        <key>Locations to Filter On</key>
    </entry>
</properties>
<runDurationMillis>0</runDurationMillis>
<schedulingPeriod>0 sec</schedulingPeriod>
<schedulingStrategy>TIMER_DRIVEN</schedulingStrategy>
<yieldDuration>1 sec</yieldDuration>
                            </config>
                            <executionNodeRestricted>false</executionNodeRestricted>
                            <name>GetTwitter</name>
                            <relationships>
<autoTerminate>false</autoTerminate>
<name>success</name>
                            </relationships>
                            <state>RUNNING</state>