<?xml version="1.0" encoding="UTF-8" standalone="yes"?>
<template encoding-version="1.3">
    <description></description>
    <groupId>c6514514-0176-1000-dab1-4f6e2d3018b9</groupId>
    <name>Santander Data Flow</name>
    <snippet>
        <processGroups>
            <id>779327ea-9509-30ae-0000-000000000000</id>
            <parentGroupId>b71a2388-7db7-394e-0000-000000000000</parentGroupId>
            <position>
                <x>0.0</x>
                <y>0.0</y>
            </position>
            <comments></comments>
            <contents>
                <connections>
                    <id>1457d445-3ab2-3f15-0000-000000000000</id>
                    <parentGroupId>779327ea-9509-30ae-0000-000000000000</parentGroupId>
                    <backPressureDataSizeThreshold>1 GB</backPressureDataSizeThreshold>
                    <backPressureObjectThreshold>10000</backPressureObjectThreshold>
                    <destination>
                        <groupId>779327ea-9509-30ae-0000-000000000000</groupId>
                        <id>19108188-1d3a-3d91-0000-000000000000</id>
                        <type>PROCESSOR</type>
                    </destination>
                    <flowFileExpiration>0 sec</flowFileExpiration>
                    <labelIndex>1</labelIndex>
                    <loadBalanceCompression>DO_NOT_COMPRESS</loadBalanceCompression>
                    <loadBalancePartitionAttribute></loadBalancePartitionAttribute>
                    <loadBalanceStatus>LOAD_BALANCE_NOT_CONFIGURED</loadBalanceStatus>
                    <loadBalanceStrategy>DO_NOT_LOAD_BALANCE</loadBalanceStrategy>
                    <name></name>
                    <selectedRelationships>split</selectedRelationships>
                    <source>
                        <groupId>779327ea-9509-30ae-0000-000000000000</groupId>
                        <id>db073b60-a95a-33c0-0000-000000000000</id>
                        <type>PROCESSOR</type>
                    </source>
                    <zIndex>0</zIndex>
                </connections>
                <connections>
                    <id>451dac04-a07c-3863-0000-000000000000</id>
                    <parentGroupId>779327ea-9509-30ae-0000-000000000000</parentGroupId>
                    <backPressureDataSizeThreshold>1 GB</backPressureDataSizeThreshold>
                    <backPressureObjectThreshold>10000</backPressureObjectThreshold>
                    <destination>
                        <groupId>779327ea-9509-30ae-0000-000000000000</groupId>
                        <id>5869f3d8-79cf-3413-0000-000000000000</id>
                        <type>PROCESSOR</type>
                    </destination>
                    <flowFileExpiration>0 sec</flowFileExpiration>
                    <labelIndex>1</labelIndex>
                    <loadBalanceCompression>DO_NOT_COMPRESS</loadBalanceCompression>
                    <loadBalancePartitionAttribute></loadBalancePartitionAttribute>
                    <loadBalanceStatus>LOAD_BALANCE_NOT_CONFIGURED</loadBalanceStatus>
                    <loadBalanceStrategy>DO_NOT_LOAD_BALANCE</loadBalanceStrategy>
                    <name></name>
                    <selectedRelationships>split</selectedRelationships>
                    <source>
                        <groupId>779327ea-9509-30ae-0000-000000000000</groupId>
                        <id>db073b60-a95a-33c0-0000-000000000000</id>
                        <type>PROCESSOR</type>
                    </source>
                    <zIndex>0</zIndex>
                </connections>
                <connections>
                    <id>a2b509b7-749b-3235-0000-000000000000</id>
                    <parentGroupId>779327ea-9509-30ae-0000-000000000000</parentGroupId>
                    <backPressureDataSizeThreshold>1 GB</backPressureDataSizeThreshold>
                    <backPressureObjectThreshold>10000</backPressureObjectThreshold>
                    <destination>
                        <groupId>779327ea-9509-30ae-0000-000000000000</groupId>
                        <id>b0527cd3-4283-3fb4-0000-000000000000</id>
                        <type>PROCESSOR</type>
                    </destination>
                    <flowFileExpiration>0 sec</flowFileExpiration>
                    <labelIndex>1</labelIndex>
                    <loadBalanceCompression>DO_NOT_COMPRESS</loadBalanceCompression>
                    <loadBalancePartitionAttribute></loadBalancePartitionAttribute>
                    <loadBalanceStatus>LOAD_BALANCE_NOT_CONFIGURED</loadBalanceStatus>
                    <loadBalanceStrategy>DO_NOT_LOAD_BALANCE</loadBalanceStrategy>
                    <name></name>
                    <source>
                        <groupId>3f86eeaa-75ee-3ef2-0000-000000000000</groupId>
                        <id>6f4bd553-dfcc-3dbb-0000-000000000000</id>
                        <type>OUTPUT_PORT</type>
                    </source>
                    <zIndex>0</zIndex>
                </connections>
                <connections>
                    <id>cbc4f01f-d233-37ee-0000-000000000000</id>
                    <parentGroupId>779327ea-9509-30ae-0000-000000000000</parentGroupId>
                    <backPressureDataSizeThreshold>1 GB</backPressureDataSizeThreshold>
                    <backPressureObjectThreshold>10000</backPressureObjectThreshold>
                    <destination>
                        <groupId>779327ea-9509-30ae-0000-000000000000</groupId>
                        <id>db073b60-a95a-33c0-0000-000000000000</id>
                        <type>PROCESSOR</type>
                    </destination>
                    <flowFileExpiration>0 sec</flowFileExpiration>
                    <labelIndex>1</labelIndex>
                    <loadBalanceCompression>DO_NOT_COMPRESS</loadBalanceCompression>
                    <loadBalancePartitionAttribute></loadBalancePartitionAttribute>
                    <loadBalanceStatus>LOAD_BALANCE_NOT_CONFIGURED</loadBalanceStatus>
                    <loadBalanceStrategy>DO_NOT_LOAD_BALANCE</loadBalanceStrategy>
                    <name></name>
                    <selectedRelationships>success</selectedRelationships>
                    <source>
                        <groupId>779327ea-9509-30ae-0000-000000000000</groupId>
                        <id>920e6a33-caef-3327-0000-000000000000</id>
                        <type>PROCESSOR</type>
                    </source>
                    <zIndex>0</zIndex>
                </connections>
                <controllerServices>
                    <id>2c2dcf5c-4c1b-3aaf-0000-000000000000</id>
                    <parentGroupId>779327ea-9509-30ae-0000-000000000000</parentGroupId>
                    <bundle>
                        <artifact>nifi-hive-nar</artifact>
                        <group>org.apache.nifi</group>
                        <version>1.12.1</version>
                    </bundle>
                    <comments></comments>
                    <descriptors>
                        <entry>
                            <key>hive-db-connect-url</key>
                            <value>
<name>hive-db-connect-url</name>
                            </value>
                        </entry>
                        <entry>
                            <key>hive-config-resources</key>
                            <value>
<name>hive-config-resources</name>
                            </value>
                        </entry>
                        <entry>
                            <key>hive-db-user</key>
                            <value>
<name>hive-db-user</name>
                            </value>
                        </entry>
                        <entry>
                            <key>hive-db-password</key>
                            <value>
<name>hive-db-password</name>
                            </value>
                        </entry>
                        <entry>
                            <key>hive-max-wait-time</key>
                            <value>
<name>hive-max-wait-time</name>
                            </value>
                        </entry>
                        <entry>
                            <key>hive-max-total-connections</key>
                            <value>
<name>hive-max-total-connections</name>
                            </value>
                        </entry>
                        <entry>
                            <key>Validation-query</key>
                            <value>
<name>Validation-query</name>
                            </value>
                        </entry>
                        <entry>
                            <key>kerberos-credentials-service</key>
                            <value>
<identifiesControllerService>org.apache.nifi.kerberos.KerberosCredentialsService</identifiesControllerService>
<name>kerberos-credentials-service</name>
                            </value>
                        </entry>
                        <entry>
                            <key>Kerberos Principal</key>
                            <value>
<name>Kerberos Principal</name>
                            </value>
                        </entry>
                        <entry>
                            <key>Kerberos Keytab</key>
                            <value>
<name>Kerberos Keytab</name>
                            </value>
                        </entry>
                        <entry>
                            <key>Kerberos Password</key>
                            <value>
<name>Kerberos Password</name>
                            </value>
                        </entry>
                    </descriptors>
                    <name>HiveConnectionPool</name>
                    <persistsState>false</persistsState>
                    <properties>
                        <entry>
                            <key>hive-db-connect-url</key>
                            <value>jdbc:hive2://hive:10000/;</value>
                        </entry>
                        <entry>
                            <key>hive-config-resources</key>
                        </entry>
                        <entry>
                            <key>hive-db-user</key>
                        </entry>
                        <entry>
                            <key>hive-db-password</key>
                        </entry>
                        <entry>
                            <key>hive-max-wait-time</key>
                            <value>500 millis</value>
                        </entry>
                        <entry>
                            <key>hive-max-total-connections</key>
                            <value>8</value>
                        </entry>
                        <entry>
                            <key>Validation-query</key>
                        </entry>
                        <entry>
                            <key>kerberos-credentials-service</key>
                        </entry>
                        <entry>
                            <key>Kerberos Principal</key>
                        </entry>
                        <entry>
                            <key>Kerberos Keytab</key>
                        </entry>
                        <entry>
                            <key>Kerberos Password</key>
                        </entry>
                    </properties>
                    <state>ENABLED</state>
                    <type>org.apache.nifi.dbcp.hive.HiveConnectionPool</type>
                </controllerServices>
                <controllerServices>
                    <id>7f8e0efe-326f-38da-0000-000000000000</id>
                    <parentGroupId>779327ea-9509-30ae-0000-000000000000</parentGroupId>
                    <bundle>
                        <artifact>nifi-record-serialization-services-nar</artifact>
                        <group>org.apache.nifi</group>
                        <version>1.12.1</version>
                    </bundle>
                    <comments></comments>
                    <descriptors>
                        <entry>
                            <key>Schema Write Strategy</key>
                            <value>
<name>Schema Write Strategy</name>
                            </value>
                        </entry>
                        <entry>
                            <key>schema-cache</key>
                            <value>
<identifiesControllerService>org.apache.nifi.serialization.RecordSchemaCacheService</identifiesControllerService>
<name>schema-cache</name>
                            </value>
                        </entry>
                        <entry>
                            <key>schema-protocol-version</key>
                            <value>
<name>schema-protocol-version</name>
                            </value>
                        </entry>
                        <entry>
                            <key>schema-access-strategy</key>
                            <value>
<name>schema-access-strategy</name>
                            </value>
                        </entry>
                        <entry>
                            <key>schema-registry</key>
                            <value>
<identifiesControllerService>org.apache.nifi.schemaregistry.services.SchemaRegistry</identifiesControllerService>
<name>schema-registry</name>
                            </value>
                        </entry>
                        <entry>
                            <key>schema-name</key>
                            <value>
<name>schema-name</name>
                            </value>
                        </entry>
                        <entry>
                            <key>schema-version</key>
                            <value>
<name>schema-version</name>
                            </value>
                        </entry>
                        <entry>
                            <key>schema-branch</key>
                            <value>
<name>schema-branch</name>
                            </value>
                        </entry>
                        <entry>
                            <key>schema-text</key>
                            <value>
<name>schema-text</name>
                            </value>
                        </entry>
                        <entry>
                            <key>Date Format</key>
                            <value>
<name>Date Format</name>
                            </value>
                        </entry>
                        <entry>
                            <key>Time Format</key>
                            <value>
<name>Time Format</name>
                            </value>
                        </entry>
                        <entry>
                            <key>Timestamp Format</key>
                            <value>
<name>Timestamp Format</name>
                            </value>
                        </entry>
                        <entry>
                            <key>Pretty Print JSON</key>
                            <value>
<name>Pretty Print JSON</name>
                            </value>
                        </entry>
                        <entry>
                            <key>suppress-nulls</key>
                            <value>
<name>suppress-nulls</name>
                            </value>
                        </entry>
                        <entry>
                            <key>output-grouping</key>
                            <value>
<name>output-grouping</name>
                            </value>
                        </entry>
                        <entry>
                            <key>compression-format</key>
                            <value>
<name>compression-format</name>
                            </value>
                        </entry>
                        <entry>
                            <key>compression-level</key>
                            <value>
<name>compression-level</name>
                            </value>
                        </entry>
                    </descriptors>
                    <name>JsonRecordSetWriter</name>
                    <persistsState>false</persistsState>
                    <properties>
                        <entry>
                            <key>Schema Write Strategy</key>
                            <value>full-schema-attribute</value>
                        </entry>
                        <entry>
                            <key>schema-cache</key>
                        </entry>
                        <entry>
                            <key>schema-protocol-version</key>
                            <value>1</value>
                        </entry>
                        <entry>
                            <key>schema-access-strategy</key>
                            <value>inherit-record-schema</value>
                        </entry>
                        <entry>
                            <key>schema-registry</key>
                        </entry>
                        <entry>
                            <key>schema-name</key>
                            <value>${schema.name}</value>
                        </entry>
                        <entry>
                            <key>schema-version</key>
                        </entry>
                        <entry>
                            <key>schema-branch</key>
                        </entry>
                        <entry>
                            <key>schema-text</key>
                            <value>${avro.schema}</value>
                        </entry>
                        <entry>
                            <key>Date Format</key>
                        </entry>
                        <entry>
                            <key>Time Format</key>
                        </entry>
                        <entry>
                            <key>Timestamp Format</key>
                        </entry>
                        <entry>
                            <key>Pretty Print JSON</key>
                            <value>false</value>
                        </entry>
                        <entry>
                            <key>suppress-nulls</key>
                            <value>never-suppress</value>
                        </entry>
                        <entry>
                            <key>output-grouping</key>
                            <value>output-array</value>
                        </entry>
                        <entry>
                            <key>compression-format</key>
                            <value>none</value>
                        </entry>
                        <entry>
                            <key>compression-level</key>
                            <value>1</value>
                        </entry>
                    </properties>
                    <state>ENABLED</state>
                    <type>org.apache.nifi.json.JsonRecordSetWriter</type>
                </controllerServices>
                <controllerServices>
                    <id>93ae2175-2d99-3e01-0000-000000000000</id>
                    <parentGroupId>779327ea-9509-30ae-0000-000000000000</parentGroupId>
                    <bundle>
                        <artifact>nifi-record-serialization-services-nar</artifact>
                        <group>org.apache.nifi</group>
                        <version>1.12.1</version>
                    </bundle>
                    <comments></comments>
                    <descriptors>
                        <entry>
                            <key>schema-access-strategy</key>
                            <value>
<name>schema-access-strategy</name>
                            </value>
                        </entry>
                        <entry>
                            <key>schema-registry</key>
                            <value>
<identifiesControllerService>org.apache.nifi.schemaregistry.services.SchemaRegistry</identifiesControllerService>
<name>schema-registry</name>
                            </value>
                        </entry>
                        <entry>
                            <key>schema-name</key>
                            <value>
<name>schema-name</name>
                            </value>
                        </entry>
                        <entry>
                            <key>schema-version</key>
                            <value>
<name>schema-version</name>
                            </value>
                        </entry>
                        <entry>
                            <key>schema-branch</key>
                            <value>
<name>schema-branch</name>
                            </value>
                        </entry>
                        <entry>
                            <key>schema-text</key>
                            <value>
<name>schema-text</name>
                            </value>
                        </entry>
                        <entry>
                            <key>cache-size</key>
                            <value>
<name>cache-size</name>
                            </value>
                        </entry>
                    </descriptors>
                    <name>AvroReader</name>
                    <persistsState>false</persistsState>
                    <properties>
                        <entry>
                            <key>schema-access-strategy</key>
                            <value>embedded-avro-schema</value>
                        </entry>
                        <entry>
                            <key>schema-registry</key>
                        </entry>
                        <entry>
                            <key>schema-name</key>
                            <value>${schema.name}</value>
                        </entry>
                        <entry>
                            <key>schema-version</key>
                        </entry>
                        <entry>
                            <key>schema-branch</key>
                        </entry>
                        <entry>
                            <key>schema-text</key>
                            <value>${avro.schema}</value>
                        </entry>
                        <entry>
                            <key>cache-size</key>
                            <value>1000</value>
                        </entry>
                    </properties>
                    <state>ENABLED</state>
                    <type>org.apache.nifi.avro.AvroReader</type>
                </controllerServices>
                <controllerServices>
                    <id>a17dac34-8ce0-39c2-0000-000000000000</id>
                    <parentGroupId>779327ea-9509-30ae-0000-000000000000</parentGroupId>
                    <bundle>
                        <artifact>nifi-record-serialization-services-nar</artifact>
                        <group>org.apache.nifi</group>
                        <version>1.12.1</version>
                    </bundle>
                    <comments></comments>
                    <descriptors>
                        <entry>
                            <key>Schema Write Strategy</key>
                            <value>
<name>Schema Write Strategy</name>
                            </value>
                        </entry>
                        <entry>
                            <key>schema-cache</key>
                            <value>
<identifiesControllerService>org.apache.nifi.serialization.RecordSchemaCacheService</identifiesControllerService>
<name>schema-cache</name>
                            </value>
                        </entry>
                        <entry>
                            <key>schema-protocol-version</key>
                            <value>
<name>schema-protocol-version</name>
                            </value>
                        </entry>
                        <entry>
                            <key>schema-access-strategy</key>
                            <value>
<name>schema-access-strategy</name>
                            </value>
                        </entry>
                        <entry>
                            <key>schema-registry</key>
                            <value>
<identifiesControllerService>org.apache.nifi.schemaregistry.services.SchemaRegistry</identifiesControllerService>
<name>schema-registry</name>
                            </value>
                        </entry>
                        <entry>
                            <key>schema-name</key>
                            <value>
<name>schema-name</name>
                            </value>
                        </entry>
                        <entry>
                            <key>schema-version</key>
                            <value>
<name>schema-version</name>
                            </value>
                        </entry>
                        <entry>
                            <key>schema-branch</key>
                            <value>
<name>schema-branch</name>
                            </value>
                        </entry>
                        <entry>
                            <key>schema-text</key>
                            <value>
<name>schema-text</name>
                            </value>
                        </entry>
                        <entry>
                            <key>compression-format</key>
                            <value>
<name>compression-format</name>
                            </value>
                        </entry>
                        <entry>
                            <key>cache-size</key>
                            <value>
<name>cache-size</name>
                            </value>
                        </entry>
                        <entry>
                            <key>encoder-pool-size</key>
                            <value>
<name>encoder-pool-size</name>
                            </value>
                        </entry>
                    </descriptors>
                    <name>AvroRecordSetWriter</name>
                    <persistsState>false</persistsState>
                    <properties>
                        <entry>
                            <key>Schema Write Strategy</key>
                            <value>avro-embedded</value>
                        </entry>
                        <entry>
                            <key>schema-cache</key>
                        </entry>
                        <entry>
                            <key>schema-protocol-version</key>
                            <value>1</value>
                        </entry>
                        <entry>
                            <key>schema-access-strategy</key>
                            <value>schema-text-property</value>
                        </entry>
                        <entry>
                            <key>schema-registry</key>
                        </entry>
                        <entry>
                            <key>schema-name</key>
                            <value>${schema.name}</value>
                        </entry>
                        <entry>
                            <key>schema-version</key>
                        </entry>
                        <entry>
                            <key>schema-branch</key>
                        </entry>
                        <entry>
                            <key>schema-text</key>
                            <value>${avro.schema}</value>
                        </entry>
                        <entry>
                            <key>compression-format</key>
                            <value>NONE</value>
                        </entry>
                        <entry>
                            <key>cache-size</key>
                            <value>1000</value>
                        </entry>
                        <entry>
                            <key>encoder-pool-size</key>
                            <value>32</value>
                        </entry>
                    </properties>
                    <state>ENABLED</state>
                    <type>org.apache.nifi.avro.AvroRecordSetWriter</type>
                </controllerServices>
                <controllerServices>
                    <id>fdbc6477-1361-32ba-0000-000000000000</id>
                    <parentGroupId>779327ea-9509-30ae-0000-000000000000</parentGroupId>
                    <bundle>
                        <artifact>nifi-record-serialization-services-nar</artifact>
                        <group>org.apache.nifi</group>
                        <version>1.12.1</version>
                    </bundle>
                    <comments></comments>
                    <descriptors>
                        <entry>
                            <key>schema-access-strategy</key>
                            <value>
<name>schema-access-strategy</name>
                            </value>
                        </entry>
                        <entry>
                            <key>schema-registry</key>
                            <value>
<identifiesControllerService>org.apache.nifi.schemaregistry.services.SchemaRegistry</identifiesControllerService>
<name>schema-registry</name>
                            </value>
                        </entry>
                        <entry>
                            <key>schema-name</key>
                            <value>
<name>schema-name</name>
                            </value>
                        </entry>
                        <entry>
                            <key>schema-version</key>
                            <value>
<name>schema-version</name>
                            </value>
                        </entry>
                        <entry>
                            <key>schema-branch</key>
                            <value>
<name>schema-branch</name>
                            </value>